
**** 11/08/24 18:55:19 **** PSpice 22.1.0 (6 October 2022) **** ID# 0 ********

 ** Profile: "SCHEMATIC1-bias"  [ D:\FACULTATE\AN3\S2\P1 PDCE 2\p11 ovidiu\ovidiu\ovidiu1-pspicefiles\schematic1\bias.sim ] 


 ****     CIRCUIT DESCRIPTION


******************************************************************************




** Creating circuit file "bias.cir" 
** WARNING: THIS AUTOMATICALLY GENERATED FILE MAY BE OVERWRITTEN BY SUBSEQUENT SIMULATIONS

*Libraries: 
* Profile Libraries :
* Local Libraries :
.LIB "../../../MovedFiles/bzx84c2v7.lib" 
.LIB "../../../p1/lib_modelepspice_anexa_1/modele_a1_lib/bzx84c2v7.lib" 
.LIB "../../../p1/lib_modelepspice_anexa_1/modele_a1_lib/bc817-25.lib" 
.LIB "../../../p1/spice_models_tht_transistors.txt" 
.LIB "../../../p1/lib_modelepspice_anexa_1/modele_a1_lib/bc807-25.lib" 
.LIB "../../../MovedFiles/mjd32cg.lib" 
.LIB "../../../MovedFiles/bzx84c6v2.lib" 
.LIB "../../../MovedFiles/bzx84c5v1.lib" 
.LIB "../../../p1/lib_modelepspice_anexa_1/modele_a1_lib/1n4148.lib" 
.LIB "../../../MovedFiles/1n4148.lib" 
* From [PSPICE NETLIST] section of C:\Users\richa\AppData\Roaming\SPB_Data\cdssetup\OrCAD_PSpice\22.1.0\PSpice.ini file:
.lib "nom.lib" 

*Analysis directives: 
.OPTIONS ADVCONV
.PROBE64 V(alias(*)) I(alias(*)) W(alias(*)) D(alias(*)) NOISE(alias(*)) 
.INC "..\SCHEMATIC1.net" 



ERROR(ORPSIM-15347): Cannot open input file D:\FACULTATE\AN3\S2\P1 PDCE 2\p11 ovidiu\ovidiu\ovidiu1-PSpiceFiles\SCHEMATIC1\SCHEMATIC1.net.


ABORTING SIMULATION
**** 11/08/24 18:55:19 **** PSpice 22.1.0 (6 October 2022) **** ID# 0 ********

 ** Profile: "SCHEMATIC1-bias"  [ D:\FACULTATE\AN3\S2\P1 PDCE 2\p11 ovidiu\ovidiu\ovidiu1-pspicefiles\schematic1\bias.sim ] 


 ****     JOB STATISTICS SUMMARY


******************************************************************************



Node counts:
  Top level (NUNODS)                =           1
  External (NCNODS)                 =           1
  Total (NUMNOD)                    =           0

Total device count (NUMEL)          =           0

Number of subcircuits (X)           =           0

Analysis statistics:
  No. total time points (NUMTTP)    =           0
  No. rejected time points (NUMRTP) =           0
  No. iterations (NUMNIT)           =           0

Load Threads                        =           1

Runtime statistics:                       Seconds      Iterations
  Readin                            =        0.00
  General setup                     =        0.00
  CMI setup                     =        0.00
  Setup                             =        0.00
  DC sweep                          =        0.00               0
  Bias point                        =        0.00               0
  AC and noise                      =        0.00               0
  Total transient analysis          =        0.00
  Output                            =        0.00
  Overhead                          =         .02
  License check-out time            =        5.13
  Total job time                    =        0.00
